!-Generator IDFEditor 1.50
!-Option SortedOrder

!-NOTE: All comments with '!-' are ignored by the IDFEditor and are generated automatically.
!-      Use '!' comments if they need to be retained when using the IDFEditor.


!-   ===========  ALL OBJECTS IN CLASS: VERSION ===========

Version,
    8.9;                     !- Version Identifier


!-   ===========  ALL OBJECTS IN CLASS: SIMULATIONCONTROL ===========

SimulationControl,
    Yes,                     !- Do Zone Sizing Calculation
    Yes,                     !- Do System Sizing Calculation
    Yes,                     !- Do Plant Sizing Calculation
    No,                      !- Run Simulation for Sizing Periods
    Yes;                     !- Run Simulation for Weather File Run Periods


!-   ===========  ALL OBJECTS IN CLASS: BUILDING ===========

Building,
    SecondarySchool900,      !- Name
    0.0,                     !- North Axis {deg}
    City,                    !- Terrain
    0.04,                    !- Loads Convergence Tolerance Value
    0.4,                     !- Temperature Convergence Tolerance Value {deltaC}
    MinimalShadowing,        !- Solar Distribution
    25,                      !- Maximum Number of Warmup Days
    6;                       !- Minimum Number of Warmup Days


!-   ===========  ALL OBJECTS IN CLASS: ZONEAIRHEATBALANCEALGORITHM ===========

ZoneAirHeatBalanceAlgorithm,
    ThirdOrderBackwardDifference;  !- Algorithm


!-   ===========  ALL OBJECTS IN CLASS: ZONEAIRCONTAMINANTBALANCE ===========

ZoneAirContaminantBalance,
    Yes,                     !- Carbon Dioxide Concentration
    Outdoor CO2 Concentration,  !- Outdoor Carbon Dioxide Schedule Name
    No;                      !- Generic Contaminant Concentration


!-   ===========  ALL OBJECTS IN CLASS: TIMESTEP ===========

Timestep,
    4;                       !- Number of Timesteps per Hour


!-   ===========  ALL OBJECTS IN CLASS: SITE:LOCATION ===========

Site:Location,
    LONDON/GATWICK_GBR Design_Conditions,  !- Name
    51.15,                   !- Latitude {deg}
    -0.18,                   !- Longitude {deg}
    0.0,                     !- Time Zone {hr}
    62.0;                    !- Elevation {m}


!-   ===========  ALL OBJECTS IN CLASS: SIZINGPERIOD:DESIGNDAY ===========

SizingPeriod:DesignDay,
    LONDON/GATWICK Ann Clg .4% Condns DB=>MWB,  !- Name
    7,                       !- Month
    21,                      !- Day of Month
    SummerDesignDay,         !- Day Type
    27.2,                    !- Maximum Dry-Bulb Temperature {C}
    9.7,                     !- Daily Dry-Bulb Temperature Range {deltaC}
    ,                        !- Dry-Bulb Temperature Range Modifier Type
    ,                        !- Dry-Bulb Temperature Range Modifier Day Schedule Name
    Wetbulb,                 !- Humidity Condition Type
    18.7,                    !- Wetbulb or DewPoint at Maximum Dry-Bulb {C}
    ,                        !- Humidity Condition Day Schedule Name
    ,                        !- Humidity Ratio at Maximum Dry-Bulb {kgWater/kgDryAir}
    ,                        !- Enthalpy at Maximum Dry-Bulb {J/kg}
    ,                        !- Daily Wet-Bulb Temperature Range {deltaC}
    100582.0,                !- Barometric Pressure {Pa}
    3.5,                     !- Wind Speed {m/s}
    90.0,                    !- Wind Direction {deg}
    No,                      !- Rain Indicator
    No,                      !- Snow Indicator
    No,                      !- Daylight Saving Time Indicator
    ASHRAEClearSky,          !- Solar Model Indicator
    ,                        !- Beam Solar Day Schedule Name
    ,                        !- Diffuse Solar Day Schedule Name
    ,                        !- ASHRAE Clear Sky Optical Depth for Beam Irradiance (taub) {dimensionless}
    ,                        !- ASHRAE Clear Sky Optical Depth for Diffuse Irradiance (taud) {dimensionless}
    1.0;                     !- Sky Clearness

SizingPeriod:DesignDay,
    LONDON/GATWICK Ann Htg 99.6% Condns DB,  !- Name
    2,                       !- Month
    21,                      !- Day of Month
    WinterDesignDay,         !- Day Type
    -4.6,                    !- Maximum Dry-Bulb Temperature {C}
    0.0,                     !- Daily Dry-Bulb Temperature Range {deltaC}
    ,                        !- Dry-Bulb Temperature Range Modifier Type
    ,                        !- Dry-Bulb Temperature Range Modifier Day Schedule Name
    Wetbulb,                 !- Humidity Condition Type
    -4.6,                    !- Wetbulb or DewPoint at Maximum Dry-Bulb {C}
    ,                        !- Humidity Condition Day Schedule Name
    ,                        !- Humidity Ratio at Maximum Dry-Bulb {kgWater/kgDryAir}
    ,                        !- Enthalpy at Maximum Dry-Bulb {J/kg}
    ,                        !- Daily Wet-Bulb Temperature Range {deltaC}
    100582.0,                !- Barometric Pressure {Pa}
    1.5,                     !- Wind Speed {m/s}
    80.0,                    !- Wind Direction {deg}
    No,                      !- Rain Indicator
    No,                      !- Snow Indicator
    No,                      !- Daylight Saving Time Indicator
    ASHRAEClearSky,          !- Solar Model Indicator
    ,                        !- Beam Solar Day Schedule Name
    ,                        !- Diffuse Solar Day Schedule Name
    ,                        !- ASHRAE Clear Sky Optical Depth for Beam Irradiance (taub) {dimensionless}
    ,                        !- ASHRAE Clear Sky Optical Depth for Diffuse Irradiance (taud) {dimensionless}
    0.0;                     !- Sky Clearness


!-   ===========  ALL OBJECTS IN CLASS: RUNPERIOD ===========

RunPeriod,
    ,                        !- Name
    7,                       !- Begin Month
    1,                       !- Begin Day of Month
    7,                       !- End Month
    2,                       !- End Day of Month
    Monday,                  !- Day of Week for Start Day
    Yes,                     !- Use Weather File Holidays and Special Days
    Yes,                     !- Use Weather File Daylight Saving Period
    No,                      !- Apply Weekend Holiday Rule
    Yes,                     !- Use Weather File Rain Indicators
    Yes;                     !- Use Weather File Snow Indicators


!-   ===========  ALL OBJECTS IN CLASS: RUNPERIODCONTROL:SPECIALDAYS ===========

RunPeriodControl:SpecialDays,
    New Years Day,           !- Name
    January 1,               !- Start Date
    1,                       !- Duration {days}
    Holiday;                 !- Special Day Type

RunPeriodControl:SpecialDays,
    Veterans Day,            !- Name
    November 11,             !- Start Date
    1,                       !- Duration {days}
    Holiday;                 !- Special Day Type

RunPeriodControl:SpecialDays,
    Christmas,               !- Name
    December 25,             !- Start Date
    1,                       !- Duration {days}
    Holiday;                 !- Special Day Type

RunPeriodControl:SpecialDays,
    Independence Day,        !- Name
    July 4,                  !- Start Date
    1,                       !- Duration {days}
    Holiday;                 !- Special Day Type

RunPeriodControl:SpecialDays,
    MLK Day,                 !- Name
    3rd Monday in January,   !- Start Date
    1,                       !- Duration {days}
    Holiday;                 !- Special Day Type

RunPeriodControl:SpecialDays,
    Presidents Day,          !- Name
    3rd Monday in February,  !- Start Date
    1,                       !- Duration {days}
    Holiday;                 !- Special Day Type

RunPeriodControl:SpecialDays,
    Memorial Day,            !- Name
    Last Monday in May,      !- Start Date
    1,                       !- Duration {days}
    Holiday;                 !- Special Day Type

RunPeriodControl:SpecialDays,
    Labor Day,               !- Name
    1st Monday in September, !- Start Date
    1,                       !- Duration {days}
    Holiday;                 !- Special Day Type

RunPeriodControl:SpecialDays,
    Columbus Day,            !- Name
    2nd Monday in October,   !- Start Date
    1,                       !- Duration {days}
    Holiday;                 !- Special Day Type

RunPeriodControl:SpecialDays,
    Thanksgiving,            !- Name
    4th Thursday in November,!- Start Date
    1,                       !- Duration {days}
    Holiday;                 !- Special Day Type


!-   ===========  ALL OBJECTS IN CLASS: RUNPERIODCONTROL:DAYLIGHTSAVINGTIME ===========

RunPeriodControl:DaylightSavingTime,
    Last Sunday in March,    !- Start Date
    Last Sunday in October;  !- End Date


!-   ===========  ALL OBJECTS IN CLASS: SITE:GROUNDTEMPERATURE:BUILDINGSURFACE ===========

Site:GroundTemperature:BuildingSurface,
    12,                      !- January Ground Temperature {C}
    14,                      !- February Ground Temperature {C}
    16,                      !- March Ground Temperature {C}
    16,                      !- April Ground Temperature {C}
    17,                      !- May Ground Temperature {C}
    18,                      !- June Ground Temperature {C}
    21,                      !- July Ground Temperature {C}
    20,                      !- August Ground Temperature {C}
    19,                      !- September Ground Temperature {C}
    18,                      !- October Ground Temperature {C}
    16,                      !- November Ground Temperature {C}
    14;                      !- December Ground Temperature {C}


!-   ===========  ALL OBJECTS IN CLASS: SCHEDULETYPELIMITS ===========

ScheduleTypeLimits,
    Any Number;              !- Name

ScheduleTypeLimits,
    Fraction,                !- Name
    0.0,                     !- Lower Limit Value
    1.0,                     !- Upper Limit Value
    CONTINUOUS;              !- Numeric Type

ScheduleTypeLimits,
    Temperature,             !- Name
    -60,                     !- Lower Limit Value
    200,                     !- Upper Limit Value
    CONTINUOUS,              !- Numeric Type
    Temperature;             !- Unit Type

ScheduleTypeLimits,
    On/Off,                  !- Name
    0,                       !- Lower Limit Value
    1,                       !- Upper Limit Value
    DISCRETE;                !- Numeric Type

ScheduleTypeLimits,
    Control Type,            !- Name
    0,                       !- Lower Limit Value
    4,                       !- Upper Limit Value
    DISCRETE;                !- Numeric Type

ScheduleTypeLimits,
    Humidity,                !- Name
    10,                      !- Lower Limit Value
    90,                      !- Upper Limit Value
    CONTINUOUS;              !- Numeric Type

ScheduleTypeLimits,
    Number;                  !- Name


!-   ===========  ALL OBJECTS IN CLASS: SCHEDULE:COMPACT ===========

Schedule:Compact,
    Office Lights Schedule,  !- Name
    Fraction,                !- Schedule Type Limits Name
    Through: 12/31,          !- Field 1
    For: Weekdays,           !- Field 2
    Until: 05:00,            !- Field 3
    0.05,                    !- Field 4
    Until: 07:00,            !- Field 5
    0.1,                     !- Field 6
    Until: 08:00,            !- Field 7
    0.3,                     !- Field 8
    Until: 17:00,            !- Field 9
    0.9,                     !- Field 10
    Until: 18:00,            !- Field 11
    0.5,                     !- Field 12
    Until: 20:00,            !- Field 13
    0.3,                     !- Field 14
    Until: 22:00,            !- Field 15
    0.2,                     !- Field 16
    Until: 23:00,            !- Field 17
    0.1,                     !- Field 18
    Until: 24:00,            !- Field 19
    0.05,                    !- Field 20
    For: SummerDesignDay,    !- Field 21
    Until: 24:00,            !- Field 22
    1.0,                     !- Field 23
    For: Saturday,           !- Field 24
    Until: 06:00,            !- Field 25
    0.05,                    !- Field 26
    Until: 08:00,            !- Field 27
    0.1,                     !- Field 28
    Until: 12:00,            !- Field 29
    0.3,                     !- Field 30
    Until: 17:00,            !- Field 31
    0.15,                    !- Field 32
    Until: 24:00,            !- Field 33
    0.05,                    !- Field 34
    For: WinterDesignDay,    !- Field 35
    Until: 24:00,            !- Field 36
    0.0,                     !- Field 37
    For: Sunday Holidays AllOtherDays,  !- Field 38
    Until: 24:00,            !- Field 39
    0.05;                    !- Field 40

Schedule:Compact,
    Office Equipment Schedule,  !- Name
    Fraction,                !- Schedule Type Limits Name
    Through: 12/31,          !- Field 1
    For: Weekdays,           !- Field 2
    Until: 08:00,            !- Field 3
    0.40,                    !- Field 4
    Until: 12:00,            !- Field 5
    0.90,                    !- Field 6
    Until: 13:00,            !- Field 7
    0.80,                    !- Field 8
    Until: 17:00,            !- Field 9
    0.90,                    !- Field 10
    Until: 18:00,            !- Field 11
    0.50,                    !- Field 12
    Until: 24:00,            !- Field 13
    0.40,                    !- Field 14
    For: SummerDesignDay,    !- Field 15
    Until: 24:00,            !- Field 16
    1.0,                     !- Field 17
    For: Saturday,           !- Field 18
    Until: 06:00,            !- Field 19
    0.30,                    !- Field 20
    Until: 08:00,            !- Field 21
    0.4,                     !- Field 22
    Until: 12:00,            !- Field 23
    0.5,                     !- Field 24
    Until: 17:00,            !- Field 25
    0.35,                    !- Field 26
    Until: 24:00,            !- Field 27
    0.30,                    !- Field 28
    For: WinterDesignDay,    !- Field 29
    Until: 24:00,            !- Field 30
    0.0,                     !- Field 31
    For: Sunday Holidays AllOtherDays,  !- Field 32
    Until: 24:00,            !- Field 33
    0.30;                    !- Field 34

Schedule:Compact,
    Office Occupancy Schedule,  !- Name
    Fraction,                !- Schedule Type Limits Name
    Through: 12/31,          !- Field 1
    For: Weekdays,           !- Field 2
    Until: 06:00,            !- Field 3
    0.0,                     !- Field 4
    Until: 07:00,            !- Field 5
    0.1,                     !- Field 6
    Until: 08:00,            !- Field 7
    0.2,                     !- Field 8
    Until: 12:00,            !- Field 9
    0.95,                    !- Field 10
    Until: 13:00,            !- Field 11
    0.5,                     !- Field 12
    Until: 17:00,            !- Field 13
    0.95,                    !- Field 14
    Until: 18:00,            !- Field 15
    0.3,                     !- Field 16
    Until: 20:00,            !- Field 17
    0.1,                     !- Field 18
    Until: 24:00,            !- Field 19
    0.05,                    !- Field 20
    For: SummerDesignDay,    !- Field 21
    Until: 06:00,            !- Field 22
    0.0,                     !- Field 23
    Until: 22:00,            !- Field 24
    1.0,                     !- Field 25
    Until: 24:00,            !- Field 26
    0.05,                    !- Field 27
    For: Saturday,           !- Field 28
    Until: 06:00,            !- Field 29
    0.0,                     !- Field 30
    Until: 08:00,            !- Field 31
    0.1,                     !- Field 32
    Until: 12:00,            !- Field 33
    0.3,                     !- Field 34
    Until: 17:00,            !- Field 35
    0.1,                     !- Field 36
    Until: 19:00,            !- Field 37
    0.0,                     !- Field 38
    Until: 24:00,            !- Field 39
    0.0,                     !- Field 40
    For: WinterDesignDay,    !- Field 41
    Until: 24:00,            !- Field 42
    0.0,                     !- Field 43
    For: Sunday Holidays AllOtherDays,  !- Field 44
    Until: 06:00,            !- Field 45
    0.0,                     !- Field 46
    Until: 18:00,            !- Field 47
    0.0,                     !- Field 48
    Until: 24:00,            !- Field 49
    0.0;                     !- Field 50

Schedule:Compact,
    Infiltration Schedule,   !- Name
    Fraction,                !- Schedule Type Limits Name
    Through: 12/31,          !- Field 1
    For: Weekdays SummerDesignDay,  !- Field 2
    Until: 06:00,            !- Field 3
    1.0,                     !- Field 4
    Until: 22:00,            !- Field 5
    0.0,                     !- Field 6
    Until: 24:00,            !- Field 7
    1.0,                     !- Field 8
    For: Saturday WinterDesignDay,  !- Field 9
    Until: 06:00,            !- Field 10
    1.0,                     !- Field 11
    Until: 18:00,            !- Field 12
    0.0,                     !- Field 13
    Until: 24:00,            !- Field 14
    1.0,                     !- Field 15
    For: Sunday Holidays AllOtherDays,  !- Field 16
    Until: 24:00,            !- Field 17
    1.0;                     !- Field 18

Schedule:Compact,
    Infiltration Half On Schedule,  !- Name
    Fraction,                !- Schedule Type Limits Name
    Through: 12/31,          !- Field 1
    For: Weekdays SummerDesignDay,  !- Field 2
    Until: 06:00,            !- Field 3
    1.0,                     !- Field 4
    Until: 22:00,            !- Field 5
    0.5,                     !- Field 6
    Until: 24:00,            !- Field 7
    1.0,                     !- Field 8
    For: Saturday WinterDesignDay,  !- Field 9
    Until: 06:00,            !- Field 10
    1.0,                     !- Field 11
    Until: 18:00,            !- Field 12
    0.5,                     !- Field 13
    Until: 24:00,            !- Field 14
    1.0,                     !- Field 15
    For: Sunday Holidays AllOtherDays,  !- Field 16
    Until: 24:00,            !- Field 17
    1.0;                     !- Field 18

Schedule:Compact,
    Infiltration Quarter On Schedule,  !- Name
    Fraction,                !- Schedule Type Limits Name
    Through: 12/31,          !- Field 1
    For: Weekdays SummerDesignDay,  !- Field 2
    Until: 06:00,            !- Field 3
    1.0,                     !- Field 4
    Until: 22:00,            !- Field 5
    0.25,                    !- Field 6
    Until: 24:00,            !- Field 7
    1.0,                     !- Field 8
    For: Saturday WinterDesignDay,  !- Field 9
    Until: 06:00,            !- Field 10
    1.0,                     !- Field 11
    Until: 18:00,            !- Field 12
    0.25,                    !- Field 13
    Until: 24:00,            !- Field 14
    1.0,                     !- Field 15
    For: Sunday Holidays AllOtherDays,  !- Field 16
    Until: 24:00,            !- Field 17
    1.0;                     !- Field 18

Schedule:Compact,
    Hours of Operation Schedule,  !- Name
    On/Off,                  !- Schedule Type Limits Name
    Through: 12/31,          !- Field 1
    For: Weekdays SummerDesignDay,  !- Field 2
    Until: 06:00,            !- Field 3
    0.0,                     !- Field 4
    Until: 22:00,            !- Field 5
    1.0,                     !- Field 6
    Until: 24:00,            !- Field 7
    0.0,                     !- Field 8
    For: Saturday WinterDesignDay,  !- Field 9
    Until: 06:00,            !- Field 10
    0.0,                     !- Field 11
    Until: 18:00,            !- Field 12
    1.0,                     !- Field 13
    Until: 24:00,            !- Field 14
    0.0,                     !- Field 15
    For: Sunday Holidays AllOtherDays,  !- Field 16
    Until: 24:00,            !- Field 17
    0.0;                     !- Field 18

Schedule:Compact,
    Always On,               !- Name
    Fraction,                !- Schedule Type Limits Name
    Through: 12/31,          !- Field 1
    For: AllDays,            !- Field 2
    Until: 24:00,            !- Field 3
    1.0;                     !- Field 4

Schedule:Compact,
    Always Off,              !- Name
    Fraction,                !- Schedule Type Limits Name
    Through: 12/31,          !- Field 1
    For: AllDays,            !- Field 2
    Until: 24:00,            !- Field 3
    0.0;                     !- Field 4

Schedule:Compact,
    Heating Setpoint Schedule,  !- Name
    Temperature,             !- Schedule Type Limits Name
    Through: 12/31,          !- Field 1
    For: Weekdays,           !- Field 2
    Until: 05:00,            !- Field 3
    15.6,                    !- Field 4
    Until: 19:00,            !- Field 5
    21.0,                    !- Field 6
    Until: 24:00,            !- Field 7
    15.6,                    !- Field 8
    For SummerDesignDay,     !- Field 9
    Until: 24:00,            !- Field 10
    15.6,                    !- Field 11
    For: Saturday,           !- Field 12
    Until: 06:00,            !- Field 13
    15.6,                    !- Field 14
    Until: 17:00,            !- Field 15
    21.0,                    !- Field 16
    Until: 24:00,            !- Field 17
    15.6,                    !- Field 18
    For: WinterDesignDay,    !- Field 19
    Until: 24:00,            !- Field 20
    21.0,                    !- Field 21
    For: Sunday Holidays AllOtherDays,  !- Field 22
    Until: 24:00,            !- Field 23
    15.6;                    !- Field 24

Schedule:Compact,
    Cooling Setpoint Schedule,  !- Name
    Temperature,             !- Schedule Type Limits Name
    Through: 12/31,          !- Field 1
    For: Weekdays SummerDesignDay,  !- Field 2
    Until: 06:00,            !- Field 3
    30.0,                    !- Field 4
    Until: 22:00,            !- Field 5
    28,                      !- Field 6
    Until: 24:00,            !- Field 7
    30.0,                    !- Field 8
    For: Saturday,           !- Field 9
    Until: 06:00,            !- Field 10
    30.0,                    !- Field 11
    Until: 18:00,            !- Field 12
    24.0,                    !- Field 13
    Until: 24:00,            !- Field 14
    30.0,                    !- Field 15
    For WinterDesignDay,     !- Field 16
    Until: 24:00,            !- Field 17
    30.0,                    !- Field 18
    For: Sunday Holidays AllOtherDays,  !- Field 19
    Until: 24:00,            !- Field 20
    30.0;                    !- Field 21

Schedule:Compact,
    Office Activity Schedule,!- Name
    Any Number,              !- Schedule Type Limits Name
    Through: 12/31,          !- Field 1
    For: AllDays,            !- Field 2
    Until: 24:00,            !- Field 3
    120.;                    !- Field 4

Schedule:Compact,
    Office Work Eff. Schedule,  !- Name
    Fraction,                !- Schedule Type Limits Name
    Through: 12/31,          !- Field 1
    For: AllDays,            !- Field 2
    Until: 24:00,            !- Field 3
    0.0;                     !- Field 4

Schedule:Compact,
    Office Clothing Schedule,!- Name
    Any Number,              !- Schedule Type Limits Name
    Through: 04/30,          !- Field 1
    For: AllDays,            !- Field 2
    Until: 24:00,            !- Field 3
    1.0,                     !- Field 4
    Through: 09/30,          !- Field 5
    For: AllDays,            !- Field 6
    Until: 24:00,            !- Field 7
    0.5,                     !- Field 8
    Through: 12/31,          !- Field 9
    For: AllDays,            !- Field 10
    Until: 24:00,            !- Field 11
    1.0;                     !- Field 12

Schedule:Compact,
    SecSchl_ClassRm_Cool,    !- Name
    Temperature,             !- Schedule Type Limits Name
    Through: 09 Jan,         !- Field 1
    For: AllDays,            !- Field 2
    Until: 24:00,            !- Field 3
    0,                       !- Field 4
    Through: 13 Feb,         !- Field 5
    For: Weekdays SummerDesignDay,  !- Field 6
    Until: 06:00,            !- Field 7
    0,                       !- Field 8
    Until: 21:00,            !- Field 9
    1,                       !- Field 10
    Until: 24:00,            !- Field 11
    0,                       !- Field 12
    For: Weekends,           !- Field 13
    Until: 24:00,            !- Field 14
    0,                       !- Field 15
    For: Holidays,           !- Field 16
    Until: 24:00,            !- Field 17
    0,                       !- Field 18
    For: WinterDesignDay AllOtherDays,  !- Field 19
    Until: 24:00,            !- Field 20
    0,                       !- Field 21
    Through: 20 Feb,         !- Field 22
    For: AllDays,            !- Field 23
    Until: 24:00,            !- Field 24
    0,                       !- Field 25
    Through: 20 Mar,         !- Field 26
    For: Weekdays SummerDesignDay,  !- Field 27
    Until: 06:00,            !- Field 28
    0,                       !- Field 29
    Until: 21:00,            !- Field 30
    1,                       !- Field 31
    Until: 24:00,            !- Field 32
    0,                       !- Field 33
    For: Weekends,           !- Field 34
    Until: 24:00,            !- Field 35
    0,                       !- Field 36
    For: Holidays,           !- Field 37
    Until: 24:00,            !- Field 38
    0,                       !- Field 39
    For: WinterDesignDay AllOtherDays,  !- Field 40
    Until: 24:00,            !- Field 41
    0,                       !- Field 42
    Through: 03 Apr,         !- Field 43
    For: AllDays,            !- Field 44
    Until: 24:00,            !- Field 45
    0,                       !- Field 46
    Through: 29 May,         !- Field 47
    For: Weekdays SummerDesignDay,  !- Field 48
    Until: 06:00,            !- Field 49
    0,                       !- Field 50
    Until: 21:00,            !- Field 51
    1,                       !- Field 52
    Until: 24:00,            !- Field 53
    0,                       !- Field 54
    For: Weekends,           !- Field 55
    Until: 24:00,            !- Field 56
    0,                       !- Field 57
    For: Holidays,           !- Field 58
    Until: 24:00,            !- Field 59
    0,                       !- Field 60
    For: WinterDesignDay AllOtherDays,  !- Field 61
    Until: 24:00,            !- Field 62
    0,                       !- Field 63
    Through: 05 Jun,         !- Field 64
    For: AllDays,            !- Field 65
    Until: 24:00,            !- Field 66
    0,                       !- Field 67
    Through: 24 Jul,         !- Field 68
    For: Weekdays SummerDesignDay,  !- Field 69
    Until: 06:00,            !- Field 70
    0,                       !- Field 71
    Until: 21:00,            !- Field 72
    1,                       !- Field 73
    Until: 24:00,            !- Field 74
    0,                       !- Field 75
    For: Weekends,           !- Field 76
    Until: 24:00,            !- Field 77
    0,                       !- Field 78
    For: Holidays,           !- Field 79
    Until: 24:00,            !- Field 80
    0,                       !- Field 81
    For: WinterDesignDay AllOtherDays,  !- Field 82
    Until: 24:00,            !- Field 83
    0,                       !- Field 84
    Through: 04 Sep,         !- Field 85
    For: AllDays,            !- Field 86
    Until: 24:00,            !- Field 87
    0,                       !- Field 88
    Through: 23 Oct,         !- Field 89
    For: Weekdays SummerDesignDay,  !- Field 90
    Until: 06:00,            !- Field 91
    0,                       !- Field 92
    Until: 21:00,            !- Field 93
    1,                       !- Field 94
    Until: 24:00,            !- Field 95
    0,                       !- Field 96
    For: Weekends,           !- Field 97
    Until: 24:00,            !- Field 98
    0,                       !- Field 99
    For: Holidays,           !- Field 100
    Until: 24:00,            !- Field 101
    0,                       !- Field 102
    For: WinterDesignDay AllOtherDays,  !- Field 103
    Until: 24:00,            !- Field 104
    0,                       !- Field 105
    Through: 30 Oct,         !- Field 106
    For: AllDays,            !- Field 107
    Until: 24:00,            !- Field 108
    0,                       !- Field 109
    Through: 22 Dec,         !- Field 110
    For: Weekdays SummerDesignDay,  !- Field 111
    Until: 06:00,            !- Field 112
    0,                       !- Field 113
    Until: 21:00,            !- Field 114
    1,                       !- Field 115
    Until: 24:00,            !- Field 116
    0,                       !- Field 117
    For: Weekends,           !- Field 118
    Until: 24:00,            !- Field 119
    0,                       !- Field 120
    For: Holidays,           !- Field 121
    Until: 24:00,            !- Field 122
    0,                       !- Field 123
    For: WinterDesignDay AllOtherDays,  !- Field 124
    Until: 24:00,            !- Field 125
    0,                       !- Field 126
    Through: 31 Dec,         !- Field 127
    For: AllDays,            !- Field 128
    Until: 24:00,            !- Field 129
    0;                       !- Field 130

Schedule:Compact,
    SecSchl_ClassRm_Light,   !- Name