!- Windows Line endings 

Version,
    8.9;                      !- Version Identifier

SimulationControl,
    Yes,                      !- Do Zone Sizing Calculation
    Yes,                      !- Do System Sizing Calculation
    Yes,                      !- Do Plant Sizing Calculation
    No,                       !- Run Simulation for Sizing Periods
    Yes;                      !- Run Simulation for Weather File Run Periods

Building,
    SecondarySchool900,       !- Name
    0.0,                      !- North Axis
    City,                     !- Terrain
    0.04,                     !- Loads Convergence Tolerance Value
    0.4,                      !- Temperature Convergence Tolerance Value
    MinimalShadowing,         !- Solar Distribution
    25,                       !- Maximum Number of Warmup Days
    6;                        !- Minimum Number of Warmup Days

Timestep,
    4;                        !- Number of Timesteps per Hour

Site:Location,
    LONDON/GATWICK_GBR Design_Conditions,    !- Name
    51.15,                    !- Latitude
    -0.18,                    !- Longitude
    0.0,                      !- Time Zone
    62.0;                     !- Elevation

SizingPeriod:DesignDay,
    LONDON/GATWICK Ann Htg 99.6% Condns DB,    !- Name
    2,                        !- Month
    21,                       !- Day of Month
    WinterDesignDay,          !- Day Type
    -4.6,                     !- Maximum DryBulb Temperature
    0.0,                      !- Daily DryBulb Temperature Range
    ,                         !- DryBulb Temperature Range Modifier Type
    ,                         !- DryBulb Temperature Range Modifier Day Schedule Name
    Wetbulb,                  !- Humidity Condition Type
    -4.6,                     !- Wetbulb or DewPoint at Maximum DryBulb
    ,                         !- Humidity Condition Day Schedule Name
    ,                         !- Humidity Ratio at Maximum DryBulb
    ,                         !- Enthalpy at Maximum DryBulb
    ,                         !- Daily WetBulb Temperature Range
    100582.0,                 !- Barometric Pressure
    1.5,                      !- Wind Speed
    80.0,                     !- Wind Direction
    No,                       !- Rain Indicator
    No,                       !- Snow Indicator
    No,                       !- Daylight Saving Time Indicator
    ASHRAEClearSky,           !- Solar Model Indicator
    ,                         !- Beam Solar Day Schedule Name
    ,                         !- Diffuse Solar Day Schedule Name
    ,                         !- ASHRAE Clear Sky Optical Depth for Beam Irradiance taub
    ,                         !- ASHRAE Clear Sky Optical Depth for Diffuse Irradiance taud
    0.0;                      !- Sky Clearness

SizingPeriod:DesignDay,
    LONDON/GATWICK Ann Clg .4% Condns DB=>MWB,    !- Name
    7,                        !- Month
    21,                       !- Day of Month
    SummerDesignDay,          !- Day Type
    27.2,                     !- Maximum DryBulb Temperature
    9.7,                      !- Daily DryBulb Temperature Range
    ,                         !- DryBulb Temperature Range Modifier Type
    ,                         !- DryBulb Temperature Range Modifier Day Schedule Name
    Wetbulb,                  !- Humidity Condition Type
    18.7,                     !- Wetbulb or DewPoint at Maximum DryBulb
    ,                         !- Humidity Condition Day Schedule Name
    ,                         !- Humidity Ratio at Maximum DryBulb
    ,                         !- Enthalpy at Maximum DryBulb
    ,                         !- Daily WetBulb Temperature Range
    100582.0,                 !- Barometric Pressure
    3.5,                      !- Wind Speed
    90.0,                     !- Wind Direction
    No,                       !- Rain Indicator
    No,                       !- Snow Indicator
    No,                       !- Daylight Saving Time Indicator
    ASHRAEClearSky,           !- Solar Model Indicator
    ,                         !- Beam Solar Day Schedule Name
    ,                         !- Diffuse Solar Day Schedule Name
    ,                         !- ASHRAE Clear Sky Optical Depth for Beam Irradiance taub
    ,                         !- ASHRAE Clear Sky Optical Depth for Diffuse Irradiance taud
    1.0;                      !- Sky Clearness

RunPeriod,
    firstwinterYEAR,          !- Name
    1,                        !- Begin Month
    1,                        !- Begin Day of Month
    12,                       !- End Month
    31,                       !- End Day of Month
    UseWeatherFile,           !- Day of Week for Start Day
    Yes,                      !- Use Weather File Holidays and Special Days
    Yes,                      !- Use Weather File Daylight Saving Period
    No,                       !- Apply Weekend Holiday Rule
    Yes,                      !- Use Weather File Rain Indicators
    Yes,                      !- Use Weather File Snow Indicators
    1;                        !- Number of Times Runperiod to be Repeated

RunPeriodControl:SpecialDays,
    New Years Day,            !- Name
    January 1,                !- Start Date
    1,                        !- Duration
    Holiday;                  !- Special Day Type

RunPeriodControl:SpecialDays,
    Veterans Day,             !- Name
    November 11,              !- Start Date
    1,                        !- Duration
    Holiday;                  !- Special Day Type

RunPeriodControl:SpecialDays,
    Christmas,                !- Name
    December 25,              !- Start Date
    1,                        !- Duration
    Holiday;                  !- Special Day Type

RunPeriodControl:SpecialDays,
    Independence Day,         !- Name
    July 4,                   !- Start Date
    1,                        !- Duration
    Holiday;                  !- Special Day Type

RunPeriodControl:SpecialDays,
    MLK Day,                  !- Name
    3rd Monday in January,    !- Start Date
    1,                        !- Duration
    Holiday;                  !- Special Day Type

RunPeriodControl:SpecialDays,
    Presidents Day,           !- Name
    3rd Monday in February,    !- Start Date
    1,                        !- Duration
    Holiday;                  !- Special Day Type

RunPeriodControl:SpecialDays,
    Memorial Day,             !- Name
    Last Monday in May,       !- Start Date
    1,                        !- Duration
    Holiday;                  !- Special Day Type

RunPeriodControl:SpecialDays,
    Labor Day,                !- Name
    1st Monday in September,    !- Start Date
    1,                        !- Duration
    Holiday;                  !- Special Day Type

RunPeriodControl:SpecialDays,
    Columbus Day,             !- Name
    2nd Monday in October,    !- Start Date
    1,                        !- Duration
    Holiday;                  !- Special Day Type

RunPeriodControl:SpecialDays,
    Thanksgiving,             !- Name
    4th Thursday in November,    !- Start Date
    1,                        !- Duration
    Holiday;                  !- Special Day Type

RunPeriodControl:DaylightSavingTime,
    Last Sunday in March,     !- Start Date
    Last Sunday in October;    !- End Date

ScheduleTypeLimits,
    Any Number;               !- Name

ScheduleTypeLimits,
    Fraction,                 !- Name
    0.0,                      !- Lower Limit Value
    1.0,                      !- Upper Limit Value
    CONTINUOUS;               !- Numeric Type

ScheduleTypeLimits,
    Temperature,              !- Name
    -60,                      !- Lower Limit Value
    200,                      !- Upper Limit Value
    CONTINUOUS;               !- Numeric Type

ScheduleTypeLimits,
    On/Off,                   !- Name
    0,                        !- Lower Limit Value
    1,                        !- Upper Limit Value
    DISCRETE;                 !- Numeric Type

ScheduleTypeLimits,
    Control Type,             !- Name
    0,                        !- Lower Limit Value
    4,                        !- Upper Limit Value
    DISCRETE;                 !- Numeric Type

ScheduleTypeLimits,
    Humidity,                 !- Name
    10,                       !- Lower Limit Value
    90,                       !- Upper Limit Value
    CONTINUOUS;               !- Numeric Type

ScheduleTypeLimits,
    Number;                   !- Name

ScheduleTypeLimits,
    HVACTemplate Any Number;    !- Name

Schedule:Compact,
    Office Lights Schedule,    !- Name
    Fraction,                 !- Schedule Type Limits Name
    Through: 12/31,           !- Field 1
    For: Weekdays,            !- Field 2
    Until: 05:00,             !- Field 3
    0.05,                     !- Field 4
    Until: 07:00,             !- Field 5
    0.1,                      !- Field 6
    Until: 08:00,             !- Field 7
    0.3,                      !- Field 8
    Until: 17:00,             !- Field 9
    0.9,                      !- Field 10
    Until: 18:00,             !- Field 11
    0.5,                      !- Field 12
    Until: 20:00,             !- Field 13
    0.3,                      !- Field 14
    Until: 22:00,             !- Field 15
    0.2,                      !- Field 16
    Until: 23:00,             !- Field 17
    0.1,                      !- Field 18
    Until: 24:00,             !- Field 19
    0.05,                     !- Field 20
    For: SummerDesignDay,     !- Field 21
    Until: 24:00,             !- Field 22
    1.0,                      !- Field 23
    For: Saturday,            !- Field 24
    Until: 06:00,             !- Field 25
    0.05,                     !- Field 26
    Until: 08:00,             !- Field 27
    0.1,                      !- Field 28
    Until: 12:00,             !- Field 29
    0.3,                      !- Field 30
    Until: 17:00,             !- Field 31
    0.15,                     !- Field 32
    Until: 24:00,             !- Field 33
    0.05,                     !- Field 34
    For: WinterDesignDay,     !- Field 35
    Until: 24:00,             !- Field 36
    0.0,                      !- Field 37
    For: Sunday Holidays AllOtherDays,    !- Field 38
    Until: 24:00,             !- Field 39
    0.05;                     !- Field 40

Schedule:Compact,
    Office Equipment Schedule,    !- Name
    Fraction,                 !- Schedule Type Limits Name
    Through: 12/31,           !- Field 1
    For: Weekdays,            !- Field 2
    Until: 08:00,             !- Field 3
    0.40,                     !- Field 4
    Until: 12:00,             !- Field 5
    0.90,                     !- Field 6
    Until: 13:00,             !- Field 7
    0.80,                     !- Field 8
    Until: 17:00,             !- Field 9
    0.90,                     !- Field 10
    Until: 18:00,             !- Field 11
    0.50,                     !- Field 12
    Until: 24:00,             !- Field 13
    0.40,                     !- Field 14
    For: SummerDesignDay,     !- Field 15
    Until: 24:00,             !- Field 16
    1.0,                      !- Field 17
    For: Saturday,            !- Field 18
    Until: 06:00,             !- Field 19
    0.30,                     !- Field 20
    Until: 08:00,             !- Field 21
    0.4,                      !- Field 22
    Until: 12:00,             !- Field 23
    0.5,                      !- Field 24
    Until: 17:00,             !- Field 25
    0.35,                     !- Field 26
    Until: 24:00,             !- Field 27
    0.30,                     !- Field 28
    For: WinterDesignDay,     !- Field 29
    Until: 24:00,             !- Field 30
    0.0,                      !- Field 31
    For: Sunday Holidays AllOtherDays,    !- Field 32
    Until: 24:00,             !- Field 33
    0.30;                     !- Field 34

Schedule:Compact,
    Office Occupancy Schedule,    !- Name
    Fraction,                 !- Schedule Type Limits Name
    Through: 12/31,           !- Field 1
    For: Weekdays,            !- Field 2
    Until: 06:00,             !- Field 3
    0.0,                      !- Field 4
    Until: 07:00,             !- Field 5
    0.1,                      !- Field 6
    Until: 08:00,             !- Field 7
    0.2,                      !- Field 8
    Until: 12:00,             !- Field 9
    0.95,                     !- Field 10
    Until: 13:00,             !- Field 11
    0.5,                      !- Field 12
    Until: 17:00,             !- Field 13
    0.95,                     !- Field 14
    Until: 18:00,             !- Field 15
    0.3,                      !- Field 16
    Until: 20:00,             !- Field 17
    0.1,                      !- Field 18
    Until: 24:00,             !- Field 19
    0.05,                     !- Field 20
    For: SummerDesignDay,     !- Field 21
    Until: 06:00,             !- Field 22
    0.0,                      !- Field 23
    Until: 22:00,             !- Field 24
    1.0,                      !- Field 25
    Until: 24:00,             !- Field 26
    0.05,                     !- Field 27
    For: Saturday,            !- Field 28
    Until: 06:00,             !- Field 29
    0.0,                      !- Field 30
    Until: 08:00,             !- Field 31
    0.1,                      !- Field 32
    Until: 12:00,             !- Field 33
    0.3,                      !- Field 34
    Until: 17:00,             !- Field 35
    0.1,                      !- Field 36
    Until: 19:00,             !- Field 37
    0.0,                      !- Field 38
    Until: 24:00,             !- Field 39
    0.0,                      !- Field 40
    For: WinterDesignDay,     !- Field 41
    Until: 24:00,             !- Field 42
    0.0,                      !- Field 43
    For: Sunday Holidays AllOtherDays,    !- Field 44
    Until: 06:00,             !- Field 45
    0.0,                      !- Field 46
    Until: 18:00,             !- Field 47
    0.0,                      !- Field 48
    Until: 24:00,             !- Field 49
    0.0;                      !- Field 50

Schedule:Compact,
    Infiltration Schedule,    !- Name
    Fraction,                 !- Schedule Type Limits Name
    Through: 12/31,           !- Field 1
    For: Weekdays SummerDesignDay,    !- Field 2
    Until: 06:00,             !- Field 3
    1.0,                      !- Field 4
    Until: 22:00,             !- Field 5
    0.0,                      !- Field 6
    Until: 24:00,             !- Field 7
    1.0,                      !- Field 8
    For: Saturday WinterDesignDay,    !- Field 9
    Until: 06:00,             !- Field 10
    1.0,                      !- Field 11
    Until: 18:00,             !- Field 12
    0.0,                      !- Field 13
    Until: 24:00,             !- Field 14
    1.0,                      !- Field 15
    For: Sunday Holidays AllOtherDays,    !- Field 16
    Until: 24:00,             !- Field 17
    1.0;                      !- Field 18

Schedule:Compact,
    Infiltration Half On Schedule,    !- Name
    Fraction,                 !- Schedule Type Limits Name
    Through: 12/31,           !- Field 1
    For: Weekdays SummerDesignDay,    !- Field 2
    Until: 06:00,             !- Field 3
    1.0,                      !- Field 4
    Until: 22:00,             !- Field 5
    0.5,                      !- Field 6
    Until: 24:00,             !- Field 7
    1.0,                      !- Field 8
    For: Saturday WinterDesignDay,    !- Field 9
    Until: 06:00,             !- Field 10
    1.0,                      !- Field 11
    Until: 18:00,             !- Field 12
    0.5,                      !- Field 13
    Until: 24:00,             !- Field 14
    1.0,                      !- Field 15
    For: Sunday Holidays AllOtherDays,    !- Field 16
    Until: 24:00,             !- Field 17
    1.0;                      !- Field 18

Schedule:Compact,
    Infiltration Quarter On Schedule,    !- Name
    Fraction,                 !- Schedule Type Limits Name
    Through: 12/31,           !- Field 1
    For: Weekdays SummerDesignDay,    !- Field 2
    Until: 06:00,             !- Field 3
    1.0,                      !- Field 4
    Until: 22:00,             !- Field 5
    0.25,                     !- Field 6
    Until: 24:00,             !- Field 7
    1.0,                      !- Field 8
    For: Saturday WinterDesignDay,    !- Field 9
    Until: 06:00,             !- Field 10
    1.0,                      !- Field 11
    Until: 18:00,             !- Field 12
    0.25,                     !- Field 13
    Until: 24:00,             !- Field 14
    1.0,                      !- Field 15
    For: Sunday Holidays AllOtherDays,    !- Field 16
    Until: 24:00,             !- Field 17
    1.0;                      !- Field 18

Schedule:Compact,
    Hours of Operation Schedule,    !- Name
    On/Off,                   !- Schedule Type Limits Name
    Through: 12/31,           !- Field 1
    For: Weekdays SummerDesignDay,    !- Field 2
    Until: 06:00,             !- Field 3
    0.0,                      !- Field 4
    Until: 22:00,             !- Field 5
    1.0,                      !- Field 6
    Until: 24:00,             !- Field 7
    0.0,                      !- Field 8
    For: Saturday WinterDesignDay,    !- Field 9
    Until: 06:00,             !- Field 10
    0.0,                      !- Field 11
    Until: 18:00,             !- Field 12
    1.0,                      !- Field 13
    Until: 24:00,             !- Field 14
    0.0,                      !- Field 15
    For: Sunday Holidays AllOtherDays,    !- Field 16
    Until: 24:00,             !- Field 17
    0.0;                      !- Field 18

Schedule:Compact,
    Always On,                !- Name
    Fraction,                 !- Schedule Type Limits Name
    Through: 12/31,           !- Field 1
    For: AllDays,             !- Field 2
    Until: 24:00,             !- Field 3
    1.0;                      !- Field 4

Schedule:Compact,
    Always Off,               !- Name
    Fraction,                 !- Schedule Type Limits Name
    Through: 12/31,           !- Field 1
    For: AllDays,             !- Field 2
    Until: 24:00,             !- Field 3
    0.0;                      !- Field 4

Schedule:Compact,
    Heating Setpoint Schedule,    !- Name
    Temperature,              !- Schedule Type Limits Name
    Through: 12/31,           !- Field 1
    For: Weekdays,            !- Field 2
    Until: 05:00,             !- Field 3
    15.6,                     !- Field 4
    Until: 19:00,             !- Field 5
    21.0,                     !- Field 6
    Until: 24:00,             !- Field 7
    15.6,                     !- Field 8
    For SummerDesignDay,      !- Field 9
    Until: 24:00,             !- Field 10
    15.6,                     !- Field 11
    For: Saturday,            !- Field 12
    Until: 06:00,             !- Field 13
    15.6,                     !- Field 14
    Until: 17:00,             !- Field 15
    21.0,                     !- Field 16
    Until: 24:00,             !- Field 17
    15.6,                     !- Field 18
    For: WinterDesignDay,     !- Field 19
    Until: 24:00,             !- Field 20
    21.0,                     !- Field 21
    For: Sunday Holidays AllOtherDays,    !- Field 22
    Until: 24:00,             !- Field 23
    15.6;                     !- Field 24

Schedule:Compact,
    Cooling Setpoint Schedule,    !- Name
    Temperature,              !- Schedule Type Limits Name
    Through: 12/31,           !- Field 1
    For: Weekdays SummerDesignDay,    !- Field 2
    Until: 06:00,             !- Field 3
    30.0,                     !- Field 4
    Until: 22:00,             !- Field 5
    24.0,                     !- Field 6
    Until: 24:00,             !- Field 7
    30.0,                     !- Field 8
    For: Saturday,            !- Field 9
    Until: 06:00,             !- Field 10
    30.0,                     !- Field 11
    Until: 18:00,             !- Field 12
    24.0,                     !- Field 13
    Until: 24:00,             !- Field 14
    30.0,                     !- Field 15
    For WinterDesignDay,      !- Field 16
    Until: 24:00,             !- Field 17
    30.0,                     !- Field 18
    For: Sunday Holidays AllOtherDays,    !- Field 19
    Until: 24:00,             !- Field 20
    30.0;                     !- Field 21

Schedule:Compact,
    Office Activity Schedule,    !- Name
    Any Number,               !- Schedule Type Limits Name
    Through: 12/31,           !- Field 1
    For: AllDays,             !- Field 2
    Until: 24:00,             !- Field 3
    120.;                     !- Field 4

Schedule:Compact,
    Office Work Eff. Schedule,    !- Name
    Fraction,                 !- Schedule Type Limits Name
    Through: 12/31,           !- Field 1
    For: AllDays,             !- Field 2
    Until: 24:00,             !- Field 3
    0.0;                      !- Field 4

Schedule:Compact,
    Office Clothing Schedule,    !- Name
    Any Number,               !- Schedule Type Limits Name
    Through: 04/30,           !- Field 1
    For: AllDays,             !- Field 2
    Until: 24:00,             !- Field 3
    1.0,                      !- Field 4
    Through: 09/30,           !- Field 5
    For: AllDays,             !- Field 6
    Until: 24:00,             !- Field 7
    0.5,                      !- Field 8
    Through: 12/31,           !- Field 9
    For: AllDays,             !- Field 10
    Until: 24:00,             !- Field 11
    1.0;                      !- Field 12

Schedule:Compact,
    SecSchl_ClassRm_Cool,     !- Name
    Temperature,              !- Schedule Type Limits Name
    Through: 09 Jan,          !- Field 1
    For: AllDays,             !- Field 2
    Until: 24:00,             !- Field 3
    0,                        !- Field 4
    Through: 13 Feb,          !- Field 5
    For: Weekdays SummerDesignDay,    !- Field 6
    Until: 06:00,             !- Field 7
    0,                        !- Field 8
    Until: 21:00,             !- Field 9
    1,                        !- Field 10
    Until: 24:00,             !- Field 11
    0,                        !- Field 12
    For: Weekends,            !- Field 13
    Until: 24:00,             !- Field 14
    0,                        !- Field 15
    For: Holidays,            !- Field 16
    Until: 24:00,             !- Field 17
    0,                        !- Field 18
    For: WinterDesignDay AllOtherDays,    !- Field 19
    Until: 24:00,             !- Field 20
    0,                        !- Field 21
    Through: 20 Feb,          !- Field 22
    For: AllDays,             !- Field 23
    Until: 24:00,             !- Field 24
    0,                        !- Field 25
    Through: 20 Mar,          !- Field 26
    For: Weekdays SummerDesignDay,    !- Field 27
    Until: 06:00,             !- Field 28
    0,                        !- Field 29
    Until: 21:00,             !- Field 30
    1,                        !- Field 31
    Until: 24:00,             !- Field 32
    0,                        !- Field 33
    For: Weekends,            !- Field 34
    Until: 24:00,             !- Field 35
    0,                        !- Field 36
    For: Holidays,            !- Field 37
    Until: 24:00,             !- Field 38
    0,                        !- Field 39
    For: WinterDesignDay AllOtherDays,    !- Field 40
    Until: 24:00,             !- Field 41
    0,                        !- Field 42
    Through: 03 Apr,          !- Field 43
    For: AllDays,             !- Field 44
    Until: 24:00,             !- Field 45
    0,                        !- Field 46
    Through: 29 May,          !- Field 47
    For: Weekdays SummerDesignDay,    !- Field 48
    Until: 06:00,             !- Field 49
    0,                        !- Field 50
    Until: 21:00,             !- Field 51
    1,                        !- Field 52
    Until: 24:00,             !- Field 53
    0,                        !- Field 54
    For: Weekends,            !- Field 55
    Until: 24:00,             !- Field 56
    0,                        !- Field 57
    For: Holidays,            !- Field 58
    Until: 24:00,             !- Field 59
    0,                        !- Field 60
    For: WinterDesignDay AllOtherDays,    !- Field 61
    Until: 24:00,             !- Field 62
    0,                        !- Field 63
    Through: 05 Jun,          !- Field 64
    For: AllDays,             !- Field 65
    Until: 24:00,             !- Field 66
    0,                        !- Field 67
    Through: 24 Jul,          !- Field 68
    For: Weekdays SummerDesignDay,    !- Field 69
    Until: 06:00,             !- Field 70
    0,                        !- Field 71
    Until: 21:00,             !- Field 72
    1,                        !- Field 73
    Until: 24:00,             !- Field 74
    0,                        !- Field 75
    For: Weekends,            !- Field 76
    Until: 24:00,             !- Field 77
    0,                        !- Field 78
    For: Holidays,            !- Field 79
    Until: 24:00,             !- Field 80
    0,                        !- Field 81
    For: WinterDesignDay AllOtherDays,    !- Field 82
    Until: 24:00,             !- Field 83
    0,                        !- Field 84
    Through: 04 Sep,          !- Field 85
    For: AllDays,             !- Field 86
    Until: 24:00,             !- Field 87
    0,                        !- Field 88
    Through: 23 Oct,          !- Field 89
    For: Weekdays SummerDesignDay,    !- Field 90
    Until: 06:00,             !- Field 91
    0,                        !- Field 92
    Until: 21:00,             !- Field 93
    1,                        !- Field 94
    Until: 24:00,             !- Field 95
    0,                        !- Field 96
    For: Weekends,            !- Field 97
    Until: 24:00,             !- Field 98
    0,                        !- Field 99
    For: Holidays,            !- Field 100
    Until: 24:00,             !- Field 101
    0,                        !- Field 102
    For: WinterDesignDay AllOtherDays,    !- Field 103
    Until: 24:00,             !- Field 104
    0,                        !- Field 105
    Through: 30 Oct,          !- Field 106
    For: AllDays,             !- Field 107
    Until: 24:00,             !- Field 108
    0,                        !- Field 109
    Through: 22 Dec,          !- Field 110
    For: Weekdays SummerDesignDay,    !- Field 111
    Until: 06:00,             !- Field 112
    0,                        !- Field 113
    Until: 21:00,             !- Field 114
    1,                        !- Field 115
    Until: 24:00,             !- Field 116
    0,                        !- Field 117
    For: Weekends,            !- Field 118
    Until: 24:00,             !- Field 119
    0,                        !- Field 120
    For: Holidays,            !- Field 121
    Until: 24:00,             !- Field 122
    0,                        !- Field 123
    For: WinterDesignDay AllOtherDays,    !- Field 124
    Until: 24:00,             !- Field 125
    0,                        !- Field 126
    Through: 31 Dec,          !- Field 127
    For: AllDays,             !- Field 128
    Until: 24:00,             !- Field 129
    0;                        !- Field 130

Schedule:Compact,
    SecSchl_ClassRm_Light,    !- Name
    Fraction,                 !- Schedule Type Limits Name
    Through: 09 Jan,          !- Field 1
    For: AllDays,             !- Field 2
    Until: 24:00,             !- Field 3
    0,                        !- Field 4
    Through: 13 Feb,          !- Field 5
    For: Weekdays SummerDesignDay,    !- Field 6
    Until: 07:00,             !- Field 7
    0,                        !- Field 8
    Until: 21:00,             !- Field 9
    1,                        !- Field 10
    Until: 24:00,             !- Field 11
    0,                        !- Field 12
    For: Weekends,            !- Field 13
    Until: 24:00,             !- Field 14
    0,                        !- Field 15
    For: Holidays,            !- Field 16
    Until: 24:00,             !- Field 17
    0,                        !- Field 18
    For: WinterDesignDay AllOtherDays,    !- Field 19
    Until: 24:00,             !- Field 20
    0,                        !- Field 21
    Through: 20 Feb,          !- Field 22
    For: AllDays,             !- Field 23
    Until: 24:00,             !- Field 24
    0,                        !- Field 25
    Through: 20 Mar,          !- Field 26
    For: Weekdays SummerDesignDay,    !- Field 27
    Until: 07:00,             !- Field 28
    0,                        !- Field 29
    Until: 21:00,             !- Field 30
    1,                        !- Field 31
    Until: 24:00,             !- Field 32
    0,                        !- Field 33
    For: Weekends,            !- Field 34
    Until: 24:00,             !- Field 35
    0,                        !- Field 36
    For: Holidays,            !- Field 37
    Until: 24:00,             !- Field 38
    0,                        !- Field 39
    For: WinterDesignDay AllOtherDays,    !- Field 40
    Until: 24:00,             !- Field 41
    0,                        !- Field 42
    Through: 03 Apr,          !- Field 43
    For: AllDays,             !- Field 44
    Until: 24:00,             !- Field 45
    0,                        !- Field 46
    Through: 29 May,          !- Field 47
    For: Weekdays SummerDesignDay,    !- Field 48
    Until: 07:00,             !- Field 49
    0,                        !- Field 50
    Until: 21:00,             !- Field 51
    1,                        !- Field 52
    Until: 24:00,             !- Field 53
    0,                        !- Field 54
    For: Weekends,            !- Field 55
    Until: 24:00,             !- Field 56
    0,                        !- Field 57
    For: Holidays,            !- Field 58
    Until: 24:00,             !- Field 59
    0,                        !- Field 60